<?xml version="1.0" encoding="UTF-8"?>

<!-- generated on 05/16/23 18:02:23 by Eclipse SUMO netedit Version 1.0.1
<configuration xmlns:xsi="http://www.w3.org/2001/XMLSchema-instance" xsi:noNamespaceSchemaLocation="http://sumo.dlr.de/xsd/netconvertConfiguration.xsd">

    <input>
        <sumo-net-file value="C:\Users\11651\Desktop\code\cqu\SumoProject\map.net.xml"/>
    </input>

    <output>
        <output-file value="C:\Users\11651\Desktop\code\cqu\SumoProject\map.net.xml"/>
    </output>

    <processing>
        <offset.disable-normalization value="true"/>
        <lefthand value="false"/>
    </processing>

    <junctions>
        <no-turnarounds value="true"/>
        <junctions.corner-detail value="5"/>
        <junctions.limit-turn-speed value="5.5"/>
        <rectangular-lane-cut value="false"/>
    </junctions>

    <pedestrian>
        <walkingareas value="false"/>
    </pedestrian>

</configuration>
-->

<net version="1.0" junctionCornerDetail="5" limitTurnSpeed="5.50" xmlns:xsi="http://www.w3.org/2001/XMLSchema-instance" xsi:noNamespaceSchemaLocation="http://sumo.dlr.de/xsd/net_file.xsd">

    <location netOffset="-623885.62,-3271584.51" convBoundary="0.00,0.00,4702.89,8018.43" origBoundary="106.244823,29.467069,106.709815,29.639919" projParameter="+proj=utm +zone=48 +ellps=WGS84 +datum=WGS84 +units=m +no_defs"/>

    <type id="highway.bridleway" priority="1" numLanes="1" speed="2.78" allow="pedestrian" oneway="1" width="2.00"/>
    <type id="highway.bus_guideway" priority="1" numLanes="1" speed="27.78" allow="bus" oneway="1"/>
    <type id="highway.cycleway" priority="1" numLanes="1" speed="8.33" allow="bicycle" oneway="0" width="1.00"/>
    <type id="highway.footway" priority="1" numLanes="1" speed="2.78" allow="pedestrian" oneway="1" width="2.00"/>
    <type id="highway.ford" priority="1" numLanes="1" speed="2.78" allow="army" oneway="0"/>
    <type id="highway.living_street" priority="3" numLanes="1" speed="2.78" disallow="tram rail_urban rail rail_electric ship" oneway="0"/>
    <type id="highway.motorway" priority="13" numLanes="2" speed="44.44" allow="private emergency authority army vip passenger hov taxi bus coach delivery truck trailer motorcycle evehicle custom1 custom2" oneway="1"/>
    <type id="highway.motorway_link" priority="12" numLanes="1" speed="22.22" allow="private emergency authority army vip passenger hov taxi bus coach delivery truck trailer motorcycle evehicle custom1 custom2" oneway="1"/>
    <type id="highway.path" priority="1" numLanes="1" speed="2.78" allow="bicycle pedestrian" oneway="1" width="2.00"/>
    <type id="highway.pedestrian" priority="1" numLanes="1" speed="2.78" allow="pedestrian" oneway="1" width="2.00"/>
    <type id="highway.primary" priority="9" numLanes="2" speed="27.78" disallow="tram rail_urban rail rail_electric ship" oneway="0"/>
    <type id="highway.primary_link" priority="8" numLanes="1" speed="22.22" disallow="tram rail_urban rail rail_electric ship" oneway="0"/>
    <type id="highway.raceway" priority="14" numLanes="2" speed="83.33" allow="vip" oneway="0"/>
    <type id="highway.residential" priority="4" numLanes="1" speed="13.89" disallow="tram rail_urban rail rail_electric ship" oneway="0"/>
    <type id="highway.secondary" priority="7" numLanes="2" speed="27.78" disallow="tram rail_urban rail rail_electric ship" oneway="0"/>
    <type id="highway.secondary_link" priority="6" numLanes="1" speed="22.22" disallow="tram rail_urban rail rail_electric ship" oneway="0"/>
    <type id="highway.service" priority="2" numLanes="1" speed="5.56" allow="delivery bicycle pedestrian" oneway="0"/>
    <type id="highway.stairs" priority="1" numLanes="1" speed="1.39" allow="pedestrian" oneway="1" width="2.00"/>
    <type id="highway.step" priority="1" numLanes="1" speed="1.39" allow="pedestrian" oneway="1" width="2.00"/>
    <type id="highway.steps" priority="1" numLanes="1" speed="1.39" allow="pedestrian" oneway="1" width="2.00"/>
    <type id="highway.tertiary" priority="6" numLanes="1" speed="22.22" disallow="tram rail_urban rail rail_electric ship" oneway="0"/>
    <type id="highway.tertiary_link" priority="5" numLanes="1" speed="22.22" disallow="tram rail_urban rail rail_electric ship" oneway="0"/>
    <type id="highway.track" priority="1" numLanes="1" speed="5.56" disallow="tram rail_urban rail rail_electric ship" oneway="0"/>
    <type id="highway.trunk" priority="11" numLanes="2" speed="27.78" disallow="tram rail_urban rail rail_electric bicycle pedestrian ship" oneway="0"/>
    <type id="highway.trunk_link" priority="10" numLanes="1" speed="22.22" disallow="tram rail_urban rail rail_electric bicycle pedestrian ship" oneway="0"/>
    <type id="highway.unclassified" priority="5" numLanes="1" speed="13.89" disallow="tram rail_urban rail rail_electric ship" oneway="0"/>
    <type id="highway.unsurfaced" priority="1" numLanes="1" speed="8.33" disallow="tram rail_urban rail rail_electric ship" oneway="0"/>
    <type id="railway.light_rail" priority="15" numLanes="1" speed="27.78" allow="rail_urban" oneway="1"/>
    <type id="railway.preserved" priority="15" numLanes="1" speed="27.78" allow="rail" oneway="1"/>
    <type id="railway.rail" priority="15" numLanes="1" speed="83.33" allow="rail rail_electric" oneway="1"/>
    <type id="railway.subway" priority="15" numLanes="1" speed="27.78" allow="rail_urban" oneway="1"/>
    <type id="railway.tram" priority="15" numLanes="1" speed="13.89" allow="tram" oneway="1"/>

    <edge id=":10014909364_0" function="internal">
        <lane id=":10014909364_0_0" index="0" allow="delivery bicycle pedestrian" speed="3.65" length="4.67" shape="1917.94,3656.14 1917.07,3657.29 1916.24,3657.63 1915.47,3657.18 1914.75,3655.93"/>
    </edge>
    <edge id=":10171719460_0" function="internal">
        <lane id=":10171719460_0_0" index="0" disallow="tram rail_urban rail rail_electric ship" speed="27.78" length="5.00" shape="2498.34,3736.56 2493.33,3736.54"/>
        <lane id=":10171719460_0_1" index="1" disallow="tram rail_urban rail rail_electric ship" speed="27.78" length="5.00" shape="2498.33,3733.36 2493.35,3733.34"/>
    </edge>
    <edge id=":10171719463_0" function="internal">
        <lane id=":10171719463_0_0" index="0" disallow="tram rail_urban rail rail_electric ship" speed="22.22" length="5.00" shape="2600.61,3973.77 2595.61,3973.73"/>
    </edge>
    <edge id=":10171719463_1" function="internal">
        <lane id=":10171719463_1_0" index="0" disallow="tram rail_urban rail rail_electric ship" speed="3.65" length="2.34" shape="2600.61,3973.77 2599.42,3972.96 2599.03,3972.16"/>
    </edge>
    <edge id=":10171719463_4" function="internal">
        <lane id=":10171719463_4_0" index="0" speed="3.65" length="2.34" shape="2599.03,3972.16 2599.43,3971.36 2600.64,3970.57"/>
    </edge>
    <edge id=":10171719463_2" function="internal">
        <lane id=":10171719463_2_0" index="0" disallow="tram rail_urban rail rail_electric ship" speed="22.22" length="5.00" shape="2595.64,3970.53 2600.64,3970.57"/>
    </edge>
    <edge id=":10171719463_3" function="internal">
        <lane id=":10171719463_3_0" index="0" disallow="tram rail_urban rail rail_electric ship" speed="3.65" length="2.34" shape="2595.64,3970.53 2596.84,3971.34 2597.23,3972.14"/>
    </edge>
    <edge id=":10171719463_5" function="internal">
        <lane id=":10171719463_5_0" index="0" speed="3.65" length="2.34" shape="2597.23,3972.14 2596.82,3972.94 2595.61,3973.73"/>
    </edge>
    <edge id=":10171719464_0" function="internal">
        <lane id=":10171719464_0_0" index="0" disallow="tram rail_urban rail rail_electric ship" speed="22.22" length="5.00" shape="2538.81,3973.17 2533.81,3973.13"/>
    </edge>
    <edge id=":10171719464_1" function="internal">
        <lane id=":10171719464_1_0" index="0" disallow="tram rail_urban rail rail_electric ship" speed="3.65" length="2.34" shape="2538.81,3973.17 2537.62,3972.36 2537.23,3971.56"/>
    </edge>
    <edge id=":10171719464_4" function="internal">
        <lane id=":10171719464_4_0" index="0" speed="3.65" length="2.34" shape="2537.23,3971.56 2537.64,3970.76 2538.85,3969.97"/>
    </edge>
    <edge id=":10171719464_2" function="internal">
        <lane id=":10171719464_2_0" index="0" disallow="tram rail_urban rail rail_electric ship" speed="22.22" length="5.00" shape="2533.84,3969.93 2538.85,3969.97"/>
    </edge>
    <edge id=":10171719464_3" function="internal">
        <lane id=":10171719464_3_0" index="0" disallow="tram rail_urban rail rail_electric ship" speed="3.65" length="2.34" shape="2533.84,3969.93 2535.04,3970.74 2535.43,3971.54"/>
    </edge>
    <edge id=":10171719464_5" function="internal">
        <lane id=":10171719464_5_0" index="0" speed="3.65" length="2.34" shape="2535.43,3971.54 2535.02,3972.34 2533.81,3973.13"/>
    </edge>
    <edge id=":10171719465_0" function="internal">
        <lane id=":10171719465_0_0" index="0" disallow="tram rail_urban rail rail_electric ship" speed="22.22" length="5.00" shape="2465.24,3972.47 2460.24,3972.43"/>
    </edge>
    <edge id=":10171719465_1" function="internal">
        <lane id=":10171719465_1_0" index="0" disallow="tram rail_urban rail rail_electric ship" speed="3.65" length="2.34" shape="2465.24,3972.47 2464.05,3971.66 2463.66,3970.86"/>
    </edge>
    <edge id=":10171719465_4" function="internal">
        <lane id=":10171719465_4_0" index="0" speed="3.65" length="2.34" shape="2463.66,3970.86 2464.07,3970.06 2465.27,3969.27"/>
    </edge>
    <edge id=":10171719465_2" function="internal">
        <lane id=":10171719465_2_0" index="0" disallow="tram rail_urban rail rail_electric ship" speed="22.22" length="5.00" shape="2460.27,3969.23 2465.27,3969.27"/>
    </edge>
    <edge id=":10171719465_3" function="internal">
        <lane id=":10171719465_3_0" index="0" disallow="tram rail_urban rail rail_electric ship" speed="3.65" length="2.34" shape="2460.27,3969.23 2461.47,3970.04 2461.86,3970.84"/>
    </edge>
    <edge id=":10171719465_5" function="internal">
        <lane id=":10171719465_5_0" index="0" speed="3.65" length="2.34" shape="2461.86,3970.84 2461.45,3971.64 2460.24,3972.43"/>
    </edge>
    <edge id=":10171719466_0" function="internal">
        <lane id=":10171719466_0_0" index="0" disallow="tram rail_urban rail rail_electric bicycle pedestrian ship" speed="6.63" length="9.00" shape="2375.57,3971.61 2373.11,3971.93 2371.31,3972.93 2370.16,3974.62 2369.66,3976.99"/>
    </edge>
    <edge id=":10171719466_1" function="internal">
        <lane id=":10171719466_1_0" index="0" disallow="tram rail_urban rail rail_electric bicycle pedestrian ship" speed="7.44" length="11.61" shape="2375.57,3971.61 2371.71,3971.91 2368.91,3972.86 2367.16,3974.49 2366.46,3976.78"/>
    </edge>
    <edge id=":10171719466_2" function="internal">
        <lane id=":10171719466_2_0" index="0" disallow="tram rail_urban rail rail_electric ship" speed="3.65" length="4.67" shape="2375.57,3971.61 2374.37,3970.80 2373.98,3970.00 2374.39,3969.20 2375.60,3968.41"/>
    </edge>
    <edge id=":10171719466_3" function="internal">
        <lane id=":10171719466_3_0" index="0" disallow="tram rail_urban rail rail_electric ship" speed="6.51" length="8.91" shape="2370.05,3962.86 2370.41,3965.27 2371.46,3967.00 2373.19,3968.05 2375.60,3968.41"/>
    </edge>
    <edge id=":10171719466_4" function="internal">
        <lane id=":10171719466_4_0" index="0" disallow="tram rail_urban rail rail_electric bicycle pedestrian ship" speed="27.78" length="13.65" shape="2370.05,3962.86 2369.66,3976.99"/>
        <lane id=":10171719466_4_1" index="1" disallow="tram rail_urban rail rail_electric bicycle pedestrian ship" speed="27.78" length="13.65" shape="2366.85,3962.89 2366.46,3976.78"/>
        <lane id=":10171719466_4_2" index="2" disallow="tram rail_urban rail rail_electric bicycle pedestrian ship" speed="27.78" length="13.65" shape="2363.65,3962.92 2363.27,3976.57"/>
        <lane id=":10171719466_4_3" index="3" disallow="tram rail_urban rail rail_electric bicycle pedestrian ship" speed="27.78" length="13.65" shape="2360.45,3962.94 2360.08,3976.36"/>
        <lane id=":10171719466_4_4" index="4" disallow="tram rail_urban rail rail_electric bicycle pedestrian ship" speed="27.78" length="13.65" shape="2357.25,3962.97 2356.88,3976.14"/>
    </edge>
    <edge id=":10171734258_0" function="internal">
        <lane id=":10171734258_0_0" index="0" disallow="tram rail_urban rail rail_electric ship" speed="6.58" length="9.13" shape="2677.23,3736.23 2674.79,3736.59 2673.03,3737.66 2671.95,3739.44 2671.56,3741.93"/>
    </edge>
    <edge id=":10171734258_1" function="internal">
        <lane id=":10171734258_1_0" index="0" disallow="tram rail_urban rail rail_electric ship" speed="27.78" length="14.40" shape="2677.23,3736.23 2662.83,3736.25"/>
        <lane id=":10171734258_1_1" index="1" disallow="tram rail_urban rail rail_electric ship" speed="27.78" length="14.40" shape="2677.23,3733.03 2662.82,3733.05"/>
    </edge>
    <edge id=":10171734258_3" function="internal">
        <lane id=":10171734258_3_0" index="0" disallow="tram rail_urban rail rail_electric ship" speed="6.46" length="9.03" shape="2668.36,3741.87 2668.05,3739.41 2667.03,3737.65 2665.29,3736.60 2662.83,3736.25"/>
    </edge>
    <edge id=":10171734258_4" function="internal">
        <lane id=":10171734258_4_0" index="0" disallow="tram rail_urban rail rail_electric ship" speed="3.65" length="4.67" shape="2668.36,3741.87 2669.18,3740.69 2669.99,3740.30 2670.78,3740.72 2671.56,3741.93"/>
    </edge>
    <edge id=":10171734290_0" function="internal">
        <lane id=":10171734290_0_0" index="0" disallow="tram rail_urban rail rail_electric ship" speed="6.55" length="9.11" shape="2673.07,3974.46 2670.60,3974.79 2668.82,3975.83 2667.73,3977.58 2667.33,3980.04"/>
    </edge>
    <edge id=":10171734290_1" function="internal">
        <lane id=":10171734290_1_0" index="0" disallow="tram rail_urban rail rail_electric ship" speed="22.22" length="14.45" shape="2673.07,3974.46 2658.62,3974.32"/>
    </edge>
    <edge id=":10171734290_2" function="internal">
        <lane id=":10171734290_2_0" index="0" disallow="tram rail_urban rail rail_electric ship" speed="7.99" length="14.22" shape="2673.07,3974.46 2669.21,3973.87 2666.48,3972.19 2664.87,3969.41 2664.39,3965.54"/>
    </edge>
    <edge id=":10171734290_3" function="internal">
        <lane id=":10171734290_3_0" index="0" disallow="tram rail_urban rail rail_electric ship" speed="3.65" length="4.67" shape="2673.07,3974.46 2671.88,3973.65 2671.49,3972.84 2671.89,3972.05 2673.10,3971.26"/>
    </edge>
    <edge id=":10171734290_4" function="internal">
        <lane id=":10171734290_4_0" index="0" disallow="tram rail_urban rail rail_electric ship" speed="6.49" length="9.03" shape="2667.59,3965.59 2667.90,3968.05 2668.92,3969.82 2670.65,3970.89 2673.10,3971.26"/>
    </edge>
    <edge id=":10171734290_5" function="internal">
        <lane id=":10171734290_5_0" index="0" disallow="tram rail_urban rail rail_electric ship" speed="22.22" length="14.45" shape="2667.59,3965.59 2667.33,3980.04"/>
    </edge>
    <edge id=":10171734290_6" function="internal">
        <lane id=":10171734290_6_0" index="0" disallow="tram rail_urban rail rail_electric ship" speed="8.04" length="5.95" shape="2667.59,3965.59 2666.97,3969.44 2665.89,3971.18"/>
    </edge>
    <edge id=":10171734290_7" function="internal">
        <lane id=":10171734290_7_0" index="0" disallow="tram rail_urban rail rail_electric ship" speed="3.65" length="2.34" shape="2667.59,3965.59 2666.77,3966.78 2665.96,3967.16"/>
    </edge>
    <edge id=":10171734290_16" function="internal">
        <lane id=":10171734290_16_0" index="0" speed="8.04" length="8.30" shape="2665.89,3971.18 2665.27,3972.18 2662.48,3973.81 2658.62,3974.32"/>
    </edge>
    <edge id=":10171734290_17" function="internal">
        <lane id=":10171734290_17_0" index="0" speed="3.65" length="2.34" shape="2665.96,3967.16 2665.17,3966.75 2664.39,3965.54"/>
    </edge>
    <edge id=":10171734290_8" function="internal">
        <lane id=":10171734290_8_0" index="0" disallow="tram rail_urban rail rail_electric ship" speed="6.55" length="9.12" shape="2658.65,3971.12 2661.12,3970.79 2662.90,3969.75 2663.99,3968.00 2664.39,3965.54"/>
    </edge>
    <edge id=":10171734290_9" function="internal">
        <lane id=":10171734290_9_0" index="0" disallow="tram rail_urban rail rail_electric ship" speed="22.22" length="14.45" shape="2658.65,3971.12 2673.10,3971.26"/>
    </edge>
    <edge id=":10171734290_10" function="internal">
        <lane id=":10171734290_10_0" index="0" disallow="tram rail_urban rail rail_electric ship" speed="7.99" length="14.22" shape="2658.65,3971.12 2662.51,3971.71 2665.24,3973.39 2666.85,3976.17 2667.33,3980.04"/>
    </edge>
    <edge id=":10171734290_11" function="internal">
        <lane id=":10171734290_11_0" index="0" disallow="tram rail_urban rail rail_electric ship" speed="3.65" length="4.67" shape="2658.65,3971.12 2659.84,3971.93 2660.23,3972.74 2659.83,3973.53 2658.62,3974.32"/>
    </edge>
    <edge id=":10171734290_12" function="internal">
        <lane id=":10171734290_12_0" index="0" disallow="tram rail_urban rail rail_electric ship" speed="6.49" length="9.03" shape="2664.13,3979.99 2663.82,3977.53 2662.80,3975.76 2661.07,3974.70 2658.62,3974.32"/>
    </edge>
    <edge id=":10171734290_13" function="internal">
        <lane id=":10171734290_13_0" index="0" disallow="tram rail_urban rail rail_electric ship" speed="22.22" length="14.45" shape="2664.13,3979.99 2664.39,3965.54"/>
    </edge>
    <edge id=":10171734290_14" function="internal">
        <lane id=":10171734290_14_0" index="0" disallow="tram rail_urban rail rail_electric ship" speed="8.04" length="5.95" shape="2664.13,3979.99 2664.75,3976.14 2665.83,3974.40"/>
    </edge>
    <edge id=":10171734290_15" function="internal">
        <lane id=":10171734290_15_0" index="0" disallow="tram rail_urban rail rail_electric ship" speed="3.65" length="2.34" shape="2664.13,3979.99 2664.95,3978.80 2665.76,3978.42"/>
    </edge>
    <edge id=":10171734290_18" function="internal">
        <lane id=":10171734290_18_0" index="0" speed="8.04" length="8.30" shape="2665.83,3974.40 2666.45,3973.40 2669.24,3971.77 2673.10,3971.26"/>
    </edge>
    <edge id=":10171734290_19" function="internal">
        <lane id=":10171734290_19_0" index="0" speed="3.65" length="2.34" shape="2665.76,3978.42 2666.55,3978.83 2667.33,3980.04"/>
    </edge>
    <edge id=":10171734292_0" function="internal">
        <lane id=":10171734292_0_0" index="0" disallow="tram rail_urban rail rail_electric ship" speed="3.65" length="4.67" shape="2660.37,4464.34 2659.55,4465.53 2658.75,4465.92 2657.95,4465.51 2657.17,4464.30"/>
    </edge>
    <edge id=":10171734313_0" function="internal">
        <lane id=":10171734313_0_0" index="0" disallow="tram rail_urban rail rail_electric bicycle pedestrian ship" speed="21.25" length="17.82" shape="2418.78,3736.10 2413.06,3736.52 2408.71,3737.67 2405.17,3739.25 2401.90,3740.99"/>
    </edge>
    <edge id=":10171734313_1" function="internal">
        <lane id=":10171734313_1_0" index="0" disallow="tram rail_urban rail rail_electric ship" speed="27.78" length="17.80" shape="2418.78,3736.10 2400.98,3735.99"/>
        <lane id=":10171734313_1_1" index="1" disallow="tram rail_urban rail rail_electric ship" speed="27.78" length="17.80" shape="2418.80,3732.90 2401.00,3732.79"/>
    </edge>
    <edge id=":10171734314_0" function="internal">
        <lane id=":10171734314_0_0" index="0" disallow="tram rail_urban rail rail_electric bicycle pedestrian ship" speed="18.06" length="17.56" shape="2373.38,3768.37 2371.52,3771.48 2369.96,3774.79 2368.88,3778.84 2368.51,3784.20"/>
        <lane id=":10171734314_0_1" index="1" disallow="tram rail_urban rail rail_electric bicycle pedestrian ship" speed="18.79" length="17.56" shape="2373.38,3768.37 2371.02,3771.40 2368.35,3774.57 2366.18,3778.60 2365.31,3784.23"/>
    </edge>
    <edge id=":10171734314_2" function="internal">
        <lane id=":10171734314_2_0" index="0" disallow="tram rail_urban rail rail_electric bicycle pedestrian ship" speed="27.78" length="16.68" shape="2368.37,3767.53 2368.51,3784.20"/>
        <lane id=":10171734314_2_1" index="1" disallow="tram rail_urban rail rail_electric bicycle pedestrian ship" speed="27.78" length="16.68" shape="2365.17,3767.55 2365.31,3784.23"/>
        <lane id=":10171734314_2_2" index="2" disallow="tram rail_urban rail rail_electric bicycle pedestrian ship" speed="27.78" length="16.68" shape="2361.97,3767.58 2362.11,3784.26"/>
        <lane id=":10171734314_2_3" index="3" disallow="tram rail_urban rail rail_electric bicycle pedestrian ship" speed="27.78" length="16.68" shape="2358.77,3767.61 2358.91,3784.28"/>
        <lane id=":10171734314_2_4" index="4" disallow="tram rail_urban rail rail_electric bicycle pedestrian ship" speed="27.78" length="16.68" shape="2355.57,3767.64 2355.71,3784.31"/>
    </edge>
    <edge id=":10171734321_0" function="internal">
        <lane id=":10171734321_0_0" index="0" disallow="tram rail_urban rail rail_electric bicycle pedestrian ship" speed="25.00" length="22.43" shape="2365.21,3660.76 2365.87,3668.15 2367.39,3673.92 2369.31,3678.46 2371.13,3682.15"/>
    </edge>
    <edge id=":10171734321_1" function="internal">
        <lane id=":10171734321_1_0" index="0" disallow="tram rail_urban rail rail_electric bicycle pedestrian ship" speed="27.78" length="22.31" shape="2365.21,3660.76 2366.47,3682.89"/>
        <lane id=":10171734321_1_1" index="1" disallow="tram rail_urban rail rail_electric bicycle pedestrian ship" speed="27.78" length="22.31" shape="2362.01,3660.78 2363.27,3682.98"/>
        <lane id=":10171734321_1_2" index="2" disallow="tram rail_urban rail rail_electric bicycle pedestrian ship" speed="27.78" length="22.31" shape="2358.81,3660.80 2360.08,3683.08"/>
        <lane id=":10171734321_1_3" index="3" disallow="tram rail_urban rail rail_electric bicycle pedestrian ship" speed="27.78" length="22.31" shape="2355.61,3660.83 2356.88,3683.18"/>
        <lane id=":10171734321_1_4" index="4" disallow="tram rail_urban rail rail_electric bicycle pedestrian ship" speed="27.78" length="22.31" shape="2352.41,3660.85 2353.68,3683.27"/>
    </edge>
    <edge id=":10171734333_0" function="internal">
        <lane id=":10171734333_0_0" index="0" disallow="tram rail_urban rail rail_electric bicycle pedestrian ship" speed="25.00" length="22.16" shape="2246.85,3719.72 2253.77,3719.28 2259.60,3718.09 2264.47,3716.65 2268.49,3715.46"/>
    </edge>
    <edge id=":10171734333_1" function="internal">
        <lane id=":10171734333_1_0" index="0" disallow="tram rail_urban rail rail_electric ship" speed="27.78" length="22.18" shape="2246.85,3719.72 2269.00,3719.55"/>
        <lane id=":10171734333_1_1" index="1" disallow="tram rail_urban rail rail_electric ship" speed="27.78" length="22.18" shape="2246.81,3722.92 2269.02,3722.75"/>
    </edge>
    <edge id=":10171734334_0" function="internal">
        <lane id=":10171734334_0_0" index="0" disallow="tram rail_urban rail rail_electric bicycle pedestrian ship" speed="27.78" length="29.27" shape="2323.99,3671.96 2323.21,3642.69"/>
        <lane id=":10171734334_0_1" index="1" disallow="tram rail_urban rail rail_electric bicycle pedestrian ship" speed="27.78" length="29.27" shape="2327.19,3671.88 2326.41,3642.64"/>
    </edge>
    <edge id=":10171734334_2" function="internal">
        <lane id=":10171734334_2_0" index="0" disallow="tram rail_urban rail rail_electric bicycle pedestrian ship" speed="25.00" length="29.27" shape="2319.76,3671.67 2321.05,3666.56 2322.19,3659.16 2322.98,3650.77 2323.21,3642.69"/>
    </edge>
    <edge id=":10171734342_0" function="internal">
        <lane id=":10171734342_0_0" index="0" disallow="tram rail_urban rail rail_electric bicycle pedestrian ship" speed="27.78" length="5.77" shape="2328.27,3885.44 2328.23,3879.64"/>
        <lane id=":10171734342_0_1" index="1" disallow="tram rail_urban rail rail_electric bicycle pedestrian ship" speed="27.78" length="5.77" shape="2331.47,3885.38 2331.43,3879.63"/>
    </edge>
    <edge id=":10171734347_0" function="internal">
        <lane id=":10171734347_0_0" index="0" disallow="tram rail_urban rail rail_electric bicycle pedestrian ship" speed="25.00" length="26.18" shape="2328.12,3815.02 2327.52,3807.47 2326.14,3800.26 2324.55,3794.01 2323.35,3789.34"/>
    </edge>
    <edge id=":10171734347_1" function="internal">
        <lane id=":10171734347_1_0" index="0" disallow="tram rail_urban rail rail_electric bicycle pedestrian ship" speed="27.78" length="26.22" shape="2328.12,3815.02 2327.26,3788.86"/>
        <lane id=":10171734347_1_1" index="1" disallow="tram rail_urban rail rail_electric bicycle pedestrian ship" speed="27.78" length="26.22" shape="2331.32,3815.01 2330.46,3788.76"/>
    </edge>
    <edge id=":10171734348_0" function="internal">
        <lane id=":10171734348_0_0" index="0" disallow="tram rail_urban rail rail_electric ship" speed="25.00" length="21.22" shape="2268.58,3740.16 2264.70,3738.97 2260.16,3737.57 2254.65,3736.41 2247.88,3735.94"/>
    </edge>
    <edge id=":10171734348_1" function="internal">
        <lane id=":10171734348_1_0" index="0" disallow="tram rail_urban rail rail_electric ship" speed="27.78" length="21.24" shape="2269.10,3736.03 2247.88,3735.94"/>
        <lane id=":10171734348_1_1" index="1" disallow="tram rail_urban rail rail_electric ship" speed="27.78" length="21.24" shape="2269.12,3732.83 2247.87,3732.74"/>
    </edge>
    <edge id=":10767569971_0" function="internal">
        <lane id=":10767569971_0_0" index="0" disallow="tram rail_urban rail rail_electric ship" speed="6.08" length="9.06" shape="833.32,3013.77 830.76,3013.99 829.07,3014.99 828.25,3016.77 828.30,3019.34"/>
    </edge>
    <edge id=":10767569971_1" function="internal">
        <lane id=":10767569971_1_0" index="0" disallow="tram rail_urban rail rail_electric ship" speed="9.73" length="14.98" shape="833.32,3013.77 818.36,3013.19"/>
    </edge>
    <edge id=":10767569971_2" function="internal">
        <lane id=":10767569971_2_0" index="0" allow="delivery bicycle pedestrian" speed="3.65" length="4.67" shape="833.32,3013.77 832.17,3012.90 831.82,3012.08 832.27,3011.31 833.51,3010.58"/>
    </edge>
    <edge id=":10767569971_3" function="internal">
        <lane id=":10767569971_3_0" index="0" allow="delivery bicycle pedestrian" speed="7.08" length="10.20" shape="826.87,3004.35 827.33,3006.93 828.60,3008.83 830.65,3010.04 833.51,3010.58"/>
    </edge>
    <edge id=":10767569971_4" function="internal">
        <lane id=":10767569971_4_0" index="0" disallow="tram rail_urban rail rail_electric ship" speed="27.78" length="15.31" shape="826.87,3004.35 826.99,3008.82 827.19,3011.88 827.59,3014.92 828.30,3019.34"/>
        <lane id=":10767569971_4_1" index="1" disallow="tram rail_urban rail rail_electric ship" speed="27.78" length="15.31" shape="823.67,3004.42 823.80,3009.02 824.00,3012.17 824.41,3015.30 825.14,3019.85"/>
    </edge>
    <edge id=":10767569971_6" function="internal">
        <lane id=":10767569971_6_0" index="0" disallow="tram rail_urban rail rail_electric ship" speed="7.20" length="11.60" shape="823.67,3004.42 823.41,3008.29 822.44,3011.04 820.75,3012.68 818.36,3013.19"/>
    </edge>
    <edge id=":10767569971_7" function="internal">
        <lane id=":10767569971_7_0" index="0" allow="delivery bicycle pedestrian" speed="9.73" length="15.12" shape="818.41,3009.99 833.51,3010.58"/>
    </edge>
    <edge id=":10767569971_8" function="internal">
        <lane id=":10767569971_8_0" index="0" disallow="tram rail_urban rail rail_electric ship" speed="8.19" length="12.90" shape="818.41,3009.99 820.75,3010.64 822.66,3012.50 824.12,3015.57 825.14,3019.85"/>
    </edge>
    <edge id=":10767569971_9" function="internal">
        <lane id=":10767569971_9_0" index="0" disallow="tram rail_urban rail rail_electric ship" speed="3.65" length="4.67" shape="818.41,3009.99 819.59,3010.81 819.98,3011.62 819.57,3012.41 818.36,3013.19"/>
    </edge>
    <edge id=":10767570002_0" function="internal">
        <lane id=":10767570002_0_0" index="0" disallow="tram rail_urban rail rail_electric ship" speed="7.42" length="10.66" shape="537.90,2991.02 537.33,2988.22 536.01,2986.13 533.96,2984.77 531.16,2984.13"/>
    </edge>
    <edge id=":10767570002_1" function="internal">
        <lane id=":10767570002_1_0" index="0" disallow="tram rail_urban rail rail_electric ship" speed="13.89" length="15.45" shape="537.90,2991.02 536.90,2975.60"/>
    </edge>
    <edge id=":10767570002_2" function="internal">
        <lane id=":10767570002_2_0" index="0" disallow="tram rail_urban rail rail_electric ship" speed="7.75" length="14.80" shape="537.90,2991.02 538.23,2986.89 539.83,2984.06 542.70,2982.52 546.84,2982.29"/>
    </edge>
    <edge id=":10767570002_3" function="internal">
        <lane id=":10767570002_3_0" index="0" disallow="tram rail_urban rail rail_electric ship" speed="3.65" length="4.67" shape="537.90,2991.02 538.62,2989.77 539.39,2989.32 540.22,2989.67 541.09,2990.82"/>
    </edge>
    <edge id=":10767570002_4" function="internal">
        <lane id=":10767570002_4_0" index="0" disallow="tram rail_urban rail rail_electric ship" speed="6.20" length="9.05" shape="546.56,2985.48 544.03,2985.62 542.27,2986.56 541.29,2988.29 541.09,2990.82"/>
    </edge>
    <edge id=":10767570002_5" function="internal">
        <lane id=":10767570002_5_0" index="0" disallow="tram rail_urban rail rail_electric ship" speed="13.89" length="15.46" shape="546.56,2985.48 531.16,2984.13"/>
    </edge>
    <edge id=":10767570002_6" function="internal">
        <lane id=":10767570002_6_0" index="0" disallow="tram rail_urban rail rail_electric ship" speed="8.78" length="6.28" shape="546.56,2985.48 542.55,2984.56 540.74,2983.36"/>
    </edge>
    <edge id=":10767570002_7" function="internal">