<?xml version="1.0" encoding="UTF-8"?>

<!-- generated on 05/18/23 22:50:50 by Eclipse SUMO polyconvert Version 1.0.1
<configuration xmlns:xsi="http://www.w3.org/2001/XMLSchema-instance" xsi:noNamespaceSchemaLocation="http://sumo.dlr.de/xsd/polyconvertConfiguration.xsd">

    <input>
        <net-file value="map.net.xml"/>
        <osm-files value="map.osm"/>
    </input>

    <output>
        <output-file value="map.poly.xml"/>
    </output>

    <processing>
        <poi-layer-offset value="5"/>
    </processing>

</configuration>
-->

<additional xmlns:xsi="http://www.w3.org/2001/XMLSchema-instance" xsi:noNamespaceSchemaLocation="http://sumo.dlr.de/xsd/additional_file.xsd">
    <location netOffset="-623885.62,-3271584.51" convBoundary="-14442.72,-10647.10,40924.95,8018.43" origBoundary="106.129866,29.467069,106.709815,29.639919" projParameter="+proj=utm +zone=48 +ellps=WGS84 +datum=WGS84 +units=m +no_defs"/>

    <poly id="1021531646" type="water" color="181,209,209" fill="0" layer="-4.00" shape="2425.829426,3279.092197 2423.622852,3322.856385"/>
    <poly id="1021531647" type="water" color="181,209,209" fill="0" layer="-4.00" shape="1531.489303,2435.331809 1529.374888,2446.856655 1546.073419,2472.134895 1573.805880,2483.449921 1595.634150,2508.220295 1645.584768,2518.919201 1689.448673,2552.458804 1744.915693,2632.876327 1808.047478,2862.745264 1817.862193,2877.240796 1845.399173,2877.349471 1893.211007,2872.143711 1936.677321,2853.645309 1958.229119,2865.778765 2038.873542,3006.982083 2128.871106,3056.800854 2246.799612,3094.820261 2293.905469,3126.536895 2401.507869,3136.945037 2422.254446,3151.685974 2427.950038,3169.759921 2425.829426,3279.092197"/>
    <poly id="1023294352" type="landuse" color="194,194,130" fill="1" layer="-3.00" shape="771.115042,3406.867417 763.801609,3571.866720 938.583701,3575.847230 955.923175,3681.084221 939.355597,3691.140713 818.722810,3688.437325 785.739653,3694.887134 540.315149,3694.215620 486.243296,3686.113514 414.274500,3683.953516 402.722445,3674.948232 373.437830,3409.287777 380.392613,3400.498381 771.115042,3406.867417"/>
    <poly id="103280047" type="water" color="181,209,209" fill="0" layer="-4.00" shape="2423.622852,3322.856385 2422.824450,3332.700209 2427.022350,3340.106542 2437.059467,3348.498438 2450.669431,3355.279162 2493.882446,3366.970247 2503.713247,3370.450107 2508.669316,3373.309883 2568.471502,3479.870250 2574.398990,3484.192872 2581.357102,3484.725625 2727.534310,3393.773834 2742.609092,3384.013383 2779.178497,3384.425736 2836.382282,3399.135373 2848.202617,3404.832429 2855.100655,3414.984749 2854.228524,3424.461989 2845.935751,3444.351132 2830.713946,3473.150447 2824.510494,3493.295921 2814.995062,3526.271441 2803.379098,3584.038199 2791.557299,3623.138807 2790.622931,3633.845567 2792.384609,3640.814504 2795.649376,3647.623067 2809.915480,3658.867039 2848.918471,3675.288862 3085.643115,3678.140106 3095.581136,3681.521971 3101.215695,3686.883381 3108.665783,3698.715663 3111.575610,3768.582902 3118.636864,3786.528644 3132.719803,3802.791605 3153.633789,3815.385787 3235.979302,3897.634068 3249.011805,3920.246980 3267.466303,3996.906919 3277.812422,4012.972612 3291.432262,4023.899601 3325.179225,4051.845457 3333.584753,4062.225775 3345.326953,4083.283656 3359.759146,4096.868794 3377.608411,4102.922941 3396.186623,4101.060983 3487.674831,4086.504521 3552.516117,4087.550561 3569.192913,4086.819947 3598.510669,4075.715022 3608.510808,4058.228624 3643.942566,4041.795771 3717.887128,4033.580937 3763.558713,4037.413875 3781.503961,4050.352360 3824.281733,4051.437290 3877.055266,4054.187745 3896.861993,4062.692197 3887.668303,4089.275675 3878.879421,4131.357934 3879.307389,4166.097231 3905.201041,4205.670399 3933.097660,4199.448901 3965.979284,4201.142150 4002.247417,4209.080605 4055.216804,4194.577768 4092.451605,4167.837404 4147.245813,4139.424317 4207.750278,4128.377363 4268.976515,4131.325858 4329.473594,4137.059307 4363.045282,4162.302138 4386.979265,4219.819853 4383.599564,4274.886526 4337.555936,4406.338425 4334.868871,4423.674991 4318.885720,4440.028487 4306.157989,4462.215647 4310.133112,4478.808137 4320.267542,4492.888595 4341.013010,4501.360274 4368.622088,4511.794531 4394.035832,4516.861706 4443.651996,4539.761235 4501.614498,4559.442580 4523.525924,4573.491676 4549.238323,4579.526862 4617.915653,4592.969689 4630.055613,4639.092597 4639.601576,4668.151041 4651.511292,4681.077341 4682.833892,4703.768549 4685.805119,4735.234372 4685.471860,4759.258811 4695.459334,4780.187347 4702.972301,4796.465878 4699.244236,4813.324971 4688.115012,4832.049928 4684.390570,4849.441058 4696.009229,4905.510775 4698.483578,4934.687794 4699.243950,4963.845183 4705.708690,4974.392813 4710.819001,4981.433740 4716.197349,4984.521056 4727.403839,4985.247941 4736.508462,4984.310446 4742.845068,4980.681283 4751.438668,4973.631128 4756.967374,4966.978098 4759.736574,4956.890917 4771.660272,4932.223482 4776.639177,4927.913787 4784.709729,4925.944827 4794.986442,4927.525604 4803.286972,4936.753277 4806.436366,4944.192929 4816.049947,4975.734970 4829.936046,5017.267605 4834.251516,5030.273299 4840.782598,5049.377973"/>
    <poly id="1044774463" type="water" color="181,209,209" fill="1" layer="-4.00" shape="1493.151263,2885.637040 1477.074808,2883.651098 1460.339690,2869.510898 1456.521333,2862.740933 1464.920553,2854.821666 1465.765637,2849.400442 1458.279581,2844.928057 1450.741714,2845.098862 1448.200872,2840.160760 1451.608758,2836.840643 1449.907181,2827.002151 1459.787956,2826.070595 1469.740701,2818.689565 1483.985971,2822.461579 1497.781245,2820.554110 1511.878770,2813.263708 1517.228174,2815.639762 1517.027442,2819.738220 1519.504952,2825.141116 1526.233828,2829.760251 1534.571898,2830.795390 1536.090585,2839.656556 1522.756960,2840.992816 1515.950601,2845.050784 1515.054564,2855.902091 1519.654662,2862.924630 1525.557099,2868.687169 1538.751507,2873.744232 1537.894868,2876.727070 1530.647350,2902.081572 1519.862043,2890.335130 1511.848376,2887.142441 1501.470751,2885.729897 1496.295834,2883.344713 1493.151263,2885.637040"/>
    <poly id="1046558736" type="building" color="255,230,230" fill="1" layer="-1.00" shape="1910.911358,3061.262538 1987.738570,3062.433505 1987.396841,3085.149814 2010.019841,3085.492010 2009.833554,3097.792047 2027.333332,3098.065776 2027.291599,3100.924721 2034.661571,3101.029503 2034.055294,3142.151708 2027.014634,3142.050617 2026.853037,3153.874364 2051.984531,3154.222604 2051.888377,3161.070819 2051.788124,3168.284727 2033.155077,3168.020416 2032.778080,3195.601771 2004.189195,3195.214820 2004.217137,3193.585932 2004.563513,3167.866179 1985.252404,3167.605431 1950.533060,3167.138841 1950.892472,3141.108915 1912.008676,3140.584711 1912.354836,3114.864965 1950.260793,3115.356045 1950.321004,3110.845941 1910.389273,3110.476254 1910.389597,3101.798275 1952.180738,3102.199875 1952.283154,3091.328606 1917.717047,3090.996840 1917.671996,3095.019462 1876.742790,3094.627642 1876.747380,3094.217623 1885.085846,3094.333149 1885.358858,3075.140468 1896.302461,3075.296254 1896.367868,3071.185197 1896.407706,3068.492477 1906.973604,3068.644044 1907.136441,3057.562877 1910.961748,3057.627882 1910.911358,3061.262538"/>
    <poly id="1046558737" type="building" color="255,230,230" fill="1" layer="-1.00" shape="2068.940494,3356.732901 2069.532873,3318.591851 2066.850327,3318.550686 2067.172114,3296.765114 2073.147480,3296.843205 2073.531032,3270.414548 1988.646875,3269.208049 1987.705813,3335.030510 2008.672472,3335.331998 2008.711097,3332.750092 2046.818467,3333.354619 2046.938091,3326.140927 2053.978388,3326.264198 2053.761116,3339.594612 2042.789084,3339.405092 2042.603755,3349.887533 2053.691993,3350.078356 2053.582305,3356.405520 2024.326949,3355.889112 2024.275032,3358.792276 1987.631133,3358.115558 1987.309134,3375.612004 2025.705779,3376.319456 2025.654358,3379.178294 2070.064929,3379.975484 2070.480236,3356.761251 2068.940494,3356.732901"/>
    <poly id="1046568239" type="building" color="255,230,230" fill="1" layer="-1.00" shape="1975.993083,3102.721573 1976.269478,3091.885501 1960.040156,3091.470923 1959.763777,3102.306994 1975.993083,3102.721573"/>
    <poly id="1046568240" type="building" color="255,230,230" fill="1" layer="-1.00" shape="1962.339977,3116.167433 1972.392159,3116.346557 1972.232110,3125.443902 1988.830776,3125.740726 1989.091669,3111.103013 1962.430985,3110.638039 1962.339977,3116.167433"/>
    <poly id="1046568241" type="building" color="255,230,230" fill="1" layer="-1.00" shape="1982.437242,3141.362602 1988.654314,3141.487684 1988.828779,3132.833820 1982.611702,3132.708738 1982.437242,3141.362602"/>
    <poly id="1046568242" type="building" color="255,230,230" fill="1" layer="-1.00" shape="2007.007279,3315.386101 2053.491752,3316.106712 2053.697598,3302.931332 2007.213071,3302.210722 2007.007279,3315.386101"/>
    <poly id="1046568245" type="building" color="255,230,230" fill="1" layer="-1.00" shape="1806.179814,3351.661396 1851.687446,3352.237251 1851.823221,3333.187108 1806.412235,3332.623420 1806.179814,3351.661396"/>
    <poly id="1046568246" type="building" color="255,230,230" fill="1" layer="-1.00" shape="1869.147578,3351.690167 1911.191324,3351.939324 1911.216260,3347.118500 1904.175110,3347.072890 1904.219023,3338.827634 1912.742062,3338.878758 1912.782257,3330.965950 1869.188631,3330.721604 1869.147578,3351.690167"/>
    <poly id="1046568247" type="building" color="255,230,230" fill="1" layer="-1.00" shape="1552.604245,3426.130333 1541.224320,3426.047574 1541.147473,3436.398219 1559.403833,3436.524531 1559.455355,3429.310087 1592.965623,3429.551421 1592.989090,3425.716972 1595.139077,3425.740992 1595.241698,3412.220901 1592.839784,3412.205149 1592.870336,3408.603522 1559.263159,3408.361108 1559.286986,3404.493414 1550.115260,3404.424227 1550.139610,3401.376680 1541.645807,3401.315072 1541.571559,3411.433002 1552.709383,3411.513057 1552.604245,3426.130333"/>
    <poly id="1046568248" type="building" color="255,230,230" fill="1" layer="-1.00" shape="1607.712823,3429.937848 1632.969197,3430.319824 1633.074044,3423.538209 1607.817654,3423.156234 1607.712823,3429.937848"/>
    <poly id="1046568249" type="building" color="255,230,230" fill="1" layer="-1.00" shape="1607.853659,3419.067016 1633.690269,3419.533056 1634.018530,3401.427130 1608.181879,3400.961090 1607.853659,3419.067016"/>
    <poly id="1046725089" type="building" color="255,230,230" fill="1" layer="-1.00" shape="1642.364737,3402.562208 1665.887376,3402.947043 1666.110531,3389.915948 1642.587865,3389.531113 1642.364737,3402.562208"/>
    <poly id="1057528476" type="leisure" color="207,245,201" fill="1" layer="-2.00" shape="1765.006289,3617.336557 1781.110559,3617.605410 1781.601931,3588.407222 1765.497619,3588.138369 1765.006289,3617.336557"/>
    <poly id="1057528476#1" type="sport" color="79,230,125" fill="1" layer="-2.00" shape="1765.006289,3617.336557 1781.110559,3617.605410 1781.601931,3588.407222 1765.497619,3588.138369 1765.006289,3617.336557"/>
    <poly id="1057528477" type="leisure" color="207,245,201" fill="1" layer="-2.00" shape="1784.743224,3617.557395 1800.847495,3617.826276 1801.348603,3588.628196 1785.244291,3588.359315 1784.743224,3617.557395"/>
    <poly id="1057528477#1" type="sport" color="79,230,125" fill="1" layer="-2.00" shape="1784.743224,3617.557395 1800.847495,3617.826276 1801.348603,3588.628196 1785.244291,3588.359315 1784.743224,3617.557395"/>
    <poly id="1057528478" type="leisure" color="207,245,201" fill="1" layer="-2.00" shape="1803.702551,3618.024474 1819.806822,3618.293383 1820.307980,3589.095301 1804.203667,3588.826393 1803.702551,3618.024474"/>
    <poly id="1057528478#1" type="sport" color="79,230,125" fill="1" layer="-2.00" shape="1803.702551,3618.024474 1819.806822,3618.293383 1820.307980,3589.095301 1804.203667,3588.826393 1803.702551,3618.024474"/>
    <poly id="1057528479" type="leisure" color="207,245,201" fill="1" layer="-2.00" shape="1822.661878,3618.491585 1838.766025,3618.771602 1839.267356,3589.562438 1823.163043,3589.293503 1822.661878,3618.491585"/>
    <poly id="1057528479#1" type="sport" color="79,230,125" fill="1" layer="-2.00" shape="1822.661878,3618.491585 1838.766025,3618.771602 1839.267356,3589.562438 1823.163043,3589.293503 1822.661878,3618.491585"/>
    <poly id="1057528480" type="leisure" color="207,245,201" fill="1" layer="-2.00" shape="1841.375116,3618.446155 1857.479387,3618.715118 1857.970959,3589.516926 1841.866645,3589.247964 1841.375116,3618.446155"/>
    <poly id="1057528480#1" type="sport" color="79,230,125" fill="1" layer="-2.00" shape="1841.375116,3618.446155 1857.479387,3618.715118 1857.970959,3589.516926 1841.866645,3589.247964 1841.375116,3618.446155"/>
    <poly id="1057528481" type="leisure" color="207,245,201" fill="1" layer="-2.00" shape="1765.623476,3585.546357 1781.727668,3585.826291 1782.219162,3556.617023 1766.114805,3556.348171 1765.623476,3585.546357"/>
    <poly id="1057528481#1" type="sport" color="79,230,125" fill="1" layer="-2.00" shape="1765.623476,3585.546357 1781.727668,3585.826291 1782.219162,3556.617023 1766.114805,3556.348171 1765.623476,3585.546357"/>
    <poly id="1057528482" type="leisure" color="207,245,201" fill="1" layer="-2.00" shape="1784.847190,3585.761451 1800.951382,3586.041413 1801.442927,3556.832143 1785.338568,3556.563264 1784.847190,3585.761451"/>
    <poly id="1057528482#1" type="sport" color="79,230,125" fill="1" layer="-2.00" shape="1784.847190,3585.761451 1800.951382,3586.041413 1801.442927,3556.832143 1785.338568,3556.563264 1784.847190,3585.761451"/>
    <poly id="1057528483" type="leisure" color="207,245,201" fill="1" layer="-2.00" shape="1803.809423,3585.973651 1819.913615,3586.253640 1820.405210,3557.044369 1804.300851,3556.775463 1803.809423,3585.973651"/>
    <poly id="1057528483#1" type="sport" color="79,230,125" fill="1" layer="-2.00" shape="1803.809423,3585.973651 1819.913615,3586.253640 1820.405210,3557.044369 1804.300851,3556.775463 1803.809423,3585.973651"/>
    <poly id="1057528484" type="leisure" color="207,245,201" fill="1" layer="-2.00" shape="1822.765827,3586.706719 1838.870143,3586.975653 1839.361663,3557.777463 1823.257304,3557.508530 1822.765827,3586.706719"/>
    <poly id="1057528484#1" type="sport" color="79,230,125" fill="1" layer="-2.00" shape="1822.765827,3586.706719 1838.870143,3586.975653 1839.361663,3557.777463 1823.257304,3557.508530 1822.765827,3586.706719"/>
    <poly id="1057528485" type="leisure" color="207,245,201" fill="1" layer="-2.00" shape="1841.988542,3586.146090 1858.092860,3586.415052 1858.594114,3557.216969 1842.489754,3556.948008 1841.988542,3586.146090"/>
    <poly id="1057528485#1" type="sport" color="79,230,125" fill="1" layer="-2.00" shape="1841.988542,3586.146090 1858.092860,3586.415052 1858.594114,3557.216969 1842.489754,3556.948008 1841.988542,3586.146090"/>
    <poly id="1057528486" type="leisure" color="207,245,201" fill="1" layer="-2.00" shape="1780.158002,3651.663873 1780.423980,3627.893828 1764.328418,3627.713737 1764.062473,3651.483781 1780.158002,3651.663873"/>
    <poly id="1057528486#1" type="sport" color="79,230,125" fill="1" layer="-2.00" shape="1780.158002,3651.663873 1780.423980,3627.893828 1764.328418,3627.713737 1764.062473,3651.483781 1780.158002,3651.663873"/>
    <poly id="1057528487" type="leisure" color="207,245,201" fill="1" layer="-2.00" shape="1799.506013,3652.013384 1799.772032,3628.243338 1783.676469,3628.063219 1783.410484,3651.833264 1799.506013,3652.013384"/>
    <poly id="1057528487#1" type="sport" color="79,230,125" fill="1" layer="-2.00" shape="1799.506013,3652.013384 1799.772032,3628.243338 1783.676469,3628.063219 1783.410484,3651.833264 1799.506013,3652.013384"/>
    <poly id="1057528488" type="leisure" color="207,245,201" fill="1" layer="-2.00" shape="1819.252574,3652.234393 1819.518635,3628.464346 1803.423072,3628.284199 1803.157044,3652.054245 1819.252574,3652.234393"/>
    <poly id="1057528488#1" type="sport" color="79,230,125" fill="1" layer="-2.00" shape="1819.252574,3652.234393 1819.518635,3628.464346 1803.423072,3628.284199 1803.157044,3652.054245 1819.252574,3652.234393"/>
    <poly id="1057528489" type="leisure" color="207,245,201" fill="1" layer="-2.00" shape="1838.476177,3652.449583 1838.732594,3628.679426 1822.646714,3628.499360 1822.380647,3652.269407 1838.476177,3652.449583"/>
    <poly id="1057528489#1" type="sport" color="79,230,125" fill="1" layer="-2.00" shape="1838.476177,3652.449583 1838.732594,3628.679426 1822.646714,3628.499360 1822.380647,3652.269407 1838.476177,3652.449583"/>
    <poly id="1057528490" type="leisure" color="207,245,201" fill="1" layer="-2.00" shape="1857.951576,3652.667624 1858.217719,3628.897575 1842.122154,3628.717372 1841.856045,3652.487420 1857.951576,3652.667624"/>
    <poly id="1057528490#1" type="sport" color="79,230,125" fill="1" layer="-2.00" shape="1857.951576,3652.667624 1858.217719,3628.897575 1842.122154,3628.717372 1841.856045,3652.487420 1857.951576,3652.667624"/>
    <poly id="1057528491" type="leisure" color="207,245,201" fill="1" layer="-2.00" shape="1858.868546,3659.870757 1760.695378,3658.095905 1762.633887,3551.488125 1860.807988,3553.262961 1858.868546,3659.870757"/>
    <poly id="1057528492" type="leisure" color="207,245,201" fill="1" layer="-2.00" shape="1766.626645,3528.779415 1773.753970,3528.903489 1773.997107,3514.963806 1766.869773,3514.839732 1766.626645,3528.779415"/>
    <poly id="1057528492#1" type="sport" color="79,230,125" fill="1" layer="-2.00" shape="1766.626645,3528.779415 1773.753970,3528.903489 1773.997107,3514.963806 1766.869773,3514.839732 1766.626645,3528.779415"/>
    <poly id="1057528493" type="leisure" color="207,245,201" fill="1" layer="-2.00" shape="1776.243392,3528.887011 1783.361033,3529.010983 1783.613867,3515.071408 1776.486533,3514.947328 1776.243392,3528.887011"/>
    <poly id="1057528493#1" type="sport" color="79,230,125" fill="1" layer="-2.00" shape="1776.243392,3528.887011 1783.361033,3529.010983 1783.613867,3515.071408 1776.486533,3514.947328 1776.243392,3528.887011"/>
    <poly id="1057528494" type="leisure" color="207,245,201" fill="1" layer="-2.00" shape="1785.984551,3529.129003 1793.102192,3529.252982 1793.345477,3515.302217 1786.218143,3515.178130 1785.984551,3529.129003"/>
    <poly id="1057528494#1" type="sport" color="79,230,125" fill="1" layer="-2.00" shape="1785.984551,3529.129003 1793.102192,3529.252982 1793.345477,3515.302217 1786.218143,3515.178130 1785.984551,3529.129003"/>
    <poly id="1057528495" type="leisure" color="207,245,201" fill="1" layer="-2.00" shape="1796.889343,3529.251030 1804.016668,3529.375124 1804.259967,3515.424358 1797.132633,3515.300265 1796.889343,3529.251030"/>
    <poly id="1057528495#1" type="sport" color="79,230,125" fill="1" layer="-2.00" shape="1796.889343,3529.251030 1804.016668,3529.375124 1804.259967,3515.424358 1797.132633,3515.300265 1796.889343,3529.251030"/>
    <poly id="1057528496" type="leisure" color="207,245,201" fill="1" layer="-2.00" shape="1806.631990,3529.360061 1813.759315,3529.484161 1814.002626,3515.533395 1806.875292,3515.409296 1806.631990,3529.360061"/>
    <poly id="1057528496#1" type="sport" color="79,230,125" fill="1" layer="-2.00" shape="1806.631990,3529.360061 1813.759315,3529.484161 1814.002626,3515.533395 1806.875292,3515.409296 1806.631990,3529.360061"/>
    <poly id="1057528497" type="leisure" color="207,245,201" fill="1" layer="-2.00" shape="1816.240542,3529.334603 1823.367868,3529.458709 1823.611067,3515.519026 1816.483732,3515.394920 1816.240542,3529.334603"/>
    <poly id="1057528497#1" type="sport" color="79,230,125" fill="1" layer="-2.00" shape="1816.240542,3529.334603 1823.367868,3529.458709 1823.611067,3515.519026 1816.483732,3515.394920 1816.240542,3529.334603"/>
    <poly id="1057528498" type="leisure" color="207,245,201" fill="1" layer="-2.00" shape="1766.820426,3511.458868 1773.947762,3511.582942 1774.190899,3497.643259 1767.063554,3497.519185 1766.820426,3511.458868"/>
    <poly id="1057528498#1" type="sport" color="79,230,125" fill="1" layer="-2.00" shape="1766.820426,3511.458868 1773.947762,3511.582942 1774.190899,3497.643259 1767.063554,3497.519185 1766.820426,3511.458868"/>
    <poly id="1057528499" type="leisure" color="207,245,201" fill="1" layer="-2.00" shape="1776.297265,3511.952802 1783.424601,3512.076883 1783.667750,3498.137200 1776.540405,3498.013120 1776.297265,3511.952802"/>
    <poly id="1057528499#1" type="sport" color="79,230,125" fill="1" layer="-2.00" shape="1776.297265,3511.952802 1783.424601,3512.076883 1783.667750,3498.137200 1776.540405,3498.013120 1776.297265,3511.952802"/>
    <poly id="1057528500" type="leisure" color="207,245,201" fill="1" layer="-2.00" shape="1786.176875,3511.941435 1793.294526,3512.065413 1793.537687,3498.125730 1786.410342,3498.001643 1786.176875,3511.941435"/>
    <poly id="1057528500#1" type="sport" color="79,230,125" fill="1" layer="-2.00" shape="1786.176875,3511.941435 1793.294526,3512.065413 1793.537687,3498.125730 1786.410342,3498.001643 1786.176875,3511.941435"/>
    <poly id="1057528501" type="leisure" color="207,245,201" fill="1" layer="-2.00" shape="1796.955784,3512.062052 1804.073435,3512.186037 1804.316609,3498.246354 1797.198949,3498.122369 1796.955784,3512.062052"/>
    <poly id="1057528501#1" type="sport" color="79,230,125" fill="1" layer="-2.00" shape="1796.955784,3512.062052 1804.073435,3512.186037 1804.316609,3498.246354 1797.198949,3498.122369 1796.955784,3512.062052"/>
    <poly id="1057528502" type="leisure" color="207,245,201" fill="1" layer="-2.00" shape="1806.947392,3512.428777 1814.074728,3512.552877 1814.317914,3498.613194 1807.190569,3498.489094 1806.947392,3512.428777"/>
    <poly id="1057528502#1" type="sport" color="79,230,125" fill="1" layer="-2.00" shape="1806.947392,3512.428777 1814.074728,3512.552877 1814.317914,3498.613194 1807.190569,3498.489094 1806.947392,3512.428777"/>
    <poly id="1057528503" type="leisure" color="207,245,201" fill="1" layer="-2.00" shape="1816.304160,3512.400502 1823.431496,3512.524607 1823.674694,3498.584924 1816.547349,3498.460818 1816.304160,3512.400502"/>
    <poly id="1057528503#1" type="sport" color="79,230,125" fill="1" layer="-2.00" shape="1816.304160,3512.400502 1823.431496,3512.524607 1823.674694,3498.584924 1816.547349,3498.460818 1816.304160,3512.400502"/>
    <poly id="1057528504" type="leisure" color="207,245,201" fill="1" layer="-2.00" shape="1845.492172,3499.859865 1856.135263,3500.001184 1856.395593,3481.074344 1845.742923,3480.921835 1845.492172,3499.859865"/>
    <poly id="1057528504#1" type="sport" color="79,230,125" fill="1" layer="-2.00" shape="1845.492172,3499.859865 1856.135263,3500.001184 1856.395593,3481.074344 1845.742923,3480.921835 1845.492172,3499.859865"/>
    <poly id="1057528505" type="leisure" color="207,245,201" fill="1" layer="-2.00" shape="1830.684470,3499.694104 1841.327560,3499.835409 1841.587865,3480.908570 1830.935196,3480.756075 1830.684470,3499.694104"/>
    <poly id="1057528505#1" type="sport" color="79,230,125" fill="1" layer="-2.00" shape="1830.684470,3499.694104 1841.327560,3499.835409 1841.587865,3480.908570 1830.935196,3480.756075 1830.684470,3499.694104"/>
    <poly id="1057528506" type="leisure" color="207,245,201" fill="1" layer="-2.00" shape="1828.312488,3533.348772 1861.837627,3533.967911 1862.380360,3505.390942 1828.629661,3505.013107 1828.312488,3533.348772"/>
    <poly id="1057528506#1" type="sport" color="79,230,125" fill="1" layer="-2.00" shape="1828.312488,3533.348772 1861.837627,3533.967911 1862.380360,3505.390942 1828.629661,3505.013107 1828.312488,3533.348772"/>
    <poly id="1057528507" type="leisure" color="207,245,201" fill="1" layer="-2.00" shape="1765.882309,3491.421408 1824.377125,3492.075986 1824.645538,3468.095393 1766.150473,3467.451900 1765.882309,3491.421408"/>
    <poly id="1057528507#1" type="sport" color="79,230,125" fill="1" layer="-2.00" shape="1765.882309,3491.421408 1824.377125,3492.075986 1824.645538,3468.095393 1766.150473,3467.451900 1765.882309,3491.421408"/>
    <poly id="1057528508" type="leisure" color="207,245,201" fill="1" layer="-2.00" shape="1763.189434,3532.132355 1828.312488,3533.348772 1861.837627,3533.967911 1862.380360,3505.390942 1863.117569,3466.364889 1764.459345,3464.507071 1763.189434,3532.132355"/>
    <poly id="1057528509" type="leisure" color="207,245,201" fill="1" layer="-2.00" shape="1764.459345,3464.507071 1764.536954,3457.569987 1795.848959,3445.651462 1863.584759,3447.130041 1863.117569,3466.364889 1764.459345,3464.507071"/>
    <poly id="1057532741" type="leisure" color="207,245,201" fill="1" layer="-2.00" shape="1942.956279,3480.325926 1950.559424,3473.428821 1963.115629,3466.210398 1975.611624,3463.502094 1989.897402,3464.438004 2001.670633,3468.316014 2010.952045,3475.014436 2013.764032,3479.058004 2026.353998,3479.199142 2024.925726,3595.366250 2023.775063,3605.560797 2020.283616,3615.474192 2015.130310,3623.296435 2007.384433,3630.834709 1999.135852,3636.560824 1991.302233,3639.831169 1980.894920,3641.133148 1970.646292,3640.375477 1959.765197,3637.283298 1950.863576,3632.140788 1944.678934,3627.416632 1942.116773,3624.417681 1931.463865,3624.298331 1933.076511,3480.348239 1942.956279,3480.325926"/>
    <poly id="1057532741#1" type="sport" color="79,230,125" fill="1" layer="-2.00" shape="1942.956279,3480.325926 1950.559424,3473.428821 1963.115629,3466.210398 1975.611624,3463.502094 1989.897402,3464.438004 2001.670633,3468.316014 2010.952045,3475.014436 2013.764032,3479.058004 2026.353998,3479.199142 2024.925726,3595.366250 2023.775063,3605.560797 2020.283616,3615.474192 2015.130310,3623.296435 2007.384433,3630.834709 1999.135852,3636.560824 1991.302233,3639.831169 1980.894920,3641.133148 1970.646292,3640.375477 1959.765197,3637.283298 1950.863576,3632.140788 1944.678934,3627.416632 1942.116773,3624.417681 1931.463865,3624.298331 1933.076511,3480.348239 1942.956279,3480.325926"/>
    <poly id="1057532742" type="leisure" color="207,245,201" fill="1" layer="-2.00" shape="1947.491029,3492.268790 1952.383851,3485.219407 1958.544491,3479.990761 1965.865423,3475.805839 1974.339445,3473.307376 1985.115417,3473.694131 1993.921684,3476.120258 2002.047282,3481.376011 2008.599121,3487.910841 2013.935640,3498.311102 2015.806959,3505.048378 2015.578200,3514.222540 2014.800098,3594.864829 2014.198996,3601.829300 2012.710158,3607.631186 2008.867492,3614.315493 2002.939937,3621.220256 1995.223008,3626.176523 1987.915200,3629.197855 1978.158228,3630.374131 1968.824275,3629.238808 1959.383671,3625.519958 1952.946240,3620.017155 1945.767321,3611.535803 1943.808698,3606.537591 1942.378870,3601.024403 1941.939838,3593.527376 1943.168366,3507.215657 1944.833361,3497.791596 1947.491029,3492.268790"/>
    <poly id="1057532742#1" type="sport" color="79,230,125" fill="1" layer="-2.00" shape="1947.491029,3492.268790 1952.383851,3485.219407 1958.544491,3479.990761 1965.865423,3475.805839 1974.339445,3473.307376 1985.115417,3473.694131 1993.921684,3476.120258 2002.047282,3481.376011 2008.599121,3487.910841 2013.935640,3498.311102 2015.806959,3505.048378 2015.578200,3514.222540 2014.800098,3594.864829 2014.198996,3601.829300 2012.710158,3607.631186 2008.867492,3614.315493 2002.939937,3621.220256 1995.223008,3626.176523 1987.915200,3629.197855 1978.158228,3630.374131 1968.824275,3629.238808 1959.383671,3625.519958 1952.946240,3620.017155 1945.767321,3611.535803 1943.808698,3606.537591 1942.378870,3601.024403 1941.939838,3593.527376 1943.168366,3507.215657 1944.833361,3497.791596 1947.491029,3492.268790"/>
    <poly id="1057532743" type="leisure" color="207,245,201" fill="1" layer="-2.00" shape="1944.833361,3497.791596 2013.935640,3498.311102 2015.806959,3505.048378 2015.578200,3514.222540 2014.800098,3594.864829 2014.198996,3601.829300 2012.710158,3607.631186 1943.808698,3606.537591 1942.378870,3601.024403 1941.939838,3593.527376 1943.168366,3507.215657 1944.833361,3497.791596"/>
    <poly id="1057532743#1" type="sport" color="79,230,125" fill="1" layer="-2.00" shape="1944.833361,3497.791596 2013.935640,3498.311102 2015.806959,3505.048378 2015.578200,3514.222540 2014.800098,3594.864829 2014.198996,3601.829300 2012.710158,3607.631186 1943.808698,3606.537591 1942.378870,3601.024403 1941.939838,3593.527376 1943.168366,3507.215657 1944.833361,3497.791596"/>
    <poly id="1057532744" type="leisure" color="207,245,201" fill="1" layer="-2.00" shape="1896.834865,3492.222257 1873.263355,3491.891797 1873.911156,3446.148446 1897.473078,3446.478796 1896.834865,3492.222257"/>
    <poly id="1057532744#1" type="sport" color="79,230,125" fill="1" layer="-2.00" shape="1896.834865,3492.222257 1873.263355,3491.891797 1873.911156,3446.148446 1897.473078,3446.478796 1896.834865,3492.222257"/>
    <poly id="1057532745" type="leisure" color="207,245,201" fill="1" layer="-2.00" shape="1895.985196,3536.954799 1872.539679,3536.625747 1873.263355,3491.891797 1896.834865,3492.222257 1895.985196,3536.954799"/>
    <poly id="1057532745#1" type="sport" color="79,230,125" fill="1" layer="-2.00" shape="1895.985196,3536.954799 1872.539679,3536.625747 1873.263355,3491.891797 1896.834865,3492.222257 1895.985196,3536.954799"/>
    <poly id="1057532746" type="leisure" color="207,245,201" fill="1" layer="-2.00" shape="1895.251459,3602.469264 1871.670496,3602.138691 1872.318310,3556.395334 1895.889685,3556.725797 1895.251459,3602.469264"/>
    <poly id="1057532746#1" type="sport" color="79,230,125" fill="1" layer="-2.00" shape="1895.251459,3602.469264 1871.670496,3602.138691 1872.318310,3556.395334 1895.889685,3556.725797 1895.251459,3602.469264"/>
    <poly id="1057532747" type="leisure" color="207,245,201" fill="1" layer="-2.00" shape="1894.602054,3648.345605 1871.030872,3648.015138 1871.670496,3602.138691 1895.251459,3602.469264 1894.602054,3648.345605"/>