<?xml version="1.0" encoding="UTF-8"?>

<!-- generated on 05/04/23 17:50:57 by Eclipse SUMO duarouter Version 1.0.1
<configuration xmlns:xsi="http://www.w3.org/2001/XMLSchema-instance" xsi:noNamespaceSchemaLocation="http://sumo.dlr.de/xsd/duarouterConfiguration.xsd">

    <input>
        <net-file value="map.net.xml"/>
        <route-files value="trips.trips.xml"/>
    </input>

    <output>
        <output-file value="map.rou.xml"/>
        <alternatives-output value="map.rou.alt.xml"/>
    </output>

    <time>
        <begin value="0"/>
        <end value="100.0"/>
    </time>

    <report>
        <no-warnings value="true"/>
        <ignore-errors value="true"/>
        <no-step-log value="true"/>
    </report>

</configuration>
-->

<routes xmlns:xsi="http://www.w3.org/2001/XMLSchema-instance" xsi:noNamespaceSchemaLocation="http://sumo.dlr.de/xsd/routes_file.xsd">
    <!--
    <vehicle id="0" depart="0.00">
        <route edges="140035800#5 140035800#6 -588176271#0 1057662071#2 464114851#0 464114846#2 464114726#0 1111813358 61670018#6 61670018#7 724053063 724053062#0 -280097906#3 -280097906#2 286016042#0 472555652#0 472555652#1 -472555653 472555651#1 -472555650#1"/>
    </vehicle>
    -->
    
    <vehicle id="1" depart="1.00">
        <route edges="1031528884#2 280097906#3 724053062#1 724053062#2 724053062#3 724053062#4"/>
    </vehicle>
    <vehicle id="2" depart="2.00">
        <route edges="140036130#0 140036130#1 140036130#2 140036130#3 1031528884#1 1031528884#2 -280097906#2 286016042#0 472555652#0 472555652#1 -472555653 -472555651#0"/>
    </vehicle>
    <vehicle id="3" depart="3.00">
        <route edges="-412515703#2 412515703#2 -412515704#1 -412515706#2 -412515706#1 -412515706#0 774885815#2 140035804#9"/>
    </vehicle>
    <vehicle id="4" depart="4.00">
        <route edges="724053064#1 724053064#2 724053064#3 724053064#4 724053064#5 1111813346#0 1111813346#1 1111813346#2 1111813346#3 -814483940#0 140035804#1 140035804#2 1111813356"/>
    </vehicle>
     <vehicle id="5" depart="5.00">
        <route edges="140035800#0 140035800#1 464114846#1 464114846#2 464114726#0 464114726#1 464114726#2 724053064#3 140035804#4 140035804#5 140035804#6 140035804#7 -248664925#3 -248664925#2 -773911407 773911406#1"/>
    </vehicle>
    
    <!--
    <vehicle id="1" depart="1.00">
        <route edges="464114846#0 140035800#2 140035800#3"/>
    </vehicle>
    <vehicle id="2" depart="2.00">
        <route edges="464114846#0 140035800#2 140035800#3 140035800#4 140035800#5 140035800#6"/>
    </vehicle>
    <vehicle id="3" depart="3.00">
        <route edges="140035804#9 140035804#10 140035804#11 140035800#1 140035800#2 140035800#3"/>
    </vehicle>
    <vehicle id="4" depart="4.00" >
        <route edges="1057662071#2 464114851#0 464114846#2 464114726#0 1111813358 61670018#6"/>
    </vehicle>
    <vehicle id="5" depart="5.00" >
        <route edges="464114851#0 464114851#1 464114851#2 464114851#3"/>
    </vehicle>
    -->
    <vehicle id="6" depart="6.00" >
        <route edges="248664930#3 248664930#4 -248664925#0"/>
    </vehicle>
    <vehicle id="7" depart="7.00" >
        <route edges="1111813358 61670018#6 61670018#7 724053063 724053062#0 -280097906#3 1031528884#3 724053065 724053064#0 724053064#1 724053064#2 724053064#3 140035804#4 140035804#5 140035804#6 140035804#7 -248664925#3 -248664925#2 -248664925#1 -248664925#0"/>
    </vehicle>
    <vehicle id="9" depart="9.00" >
        <route edges="248663899#0 -588176271#1 -588176271#0 1057662071#2 464114851#0 464114851#1 464114851#2 -467717176 -412515704#2 -412515704#1 -412515706#2 -412515706#1 -412515706#0"/>
    </vehicle>
    <vehicle id="10" depart="10.00" >
        <route edges="475294244 722850574 1057662071#0 1057662071#1 1057662071#2 464114851#0 464114846#2 464114726#0 464114726#1 464114726#2 724053064#3 140035804#4 140035804#5 140035804#6 140035804#7 -248664925#3 -248664925#2 -248664925#1 -248664930#4 -248664930#3 248664930#3"/>
    </vehicle>
    <vehicle id="11" depart="11.00" >
        <route edges="-286016042#1 -286016042#0 280097906#2 1031528884#3 724053065 724053064#0 724053064#1 724053064#2 724053064#3 140035804#4 140035804#5 140035804#6 140035804#7 -248664925#3 -248664925#2 -248664925#1 248664925#1"/>
    </vehicle>
    <vehicle id="12" depart="12.00" >
        <route edges="724053064#1 724053064#2 724053064#3 140035804#4 140035804#5 140035804#6 140035804#7 -248664925#3 -248664925#2 -773911407 773911406#1"/>
    </vehicle>
    <vehicle id="13" depart="13.00" >
        <route edges="-773911406#1 -773911406#0 -248664930#2 -248664930#1 -248664930#0 61670018#1 61670018#2 61670018#3 61670018#4 61670018#5 61670018#6 61670018#7 724053063 724053062#0 280097906#4 -464114716#2"/>
    </vehicle>
    <vehicle id="14" depart="14.00" >
        <route edges="248663899#2 -248663899#2 -248663899#1 -588176271#1 -588176271#0 1057662071#2 464114851#0 464114851#1 140035804#11 140035804#12 464114846#0"/>
    </vehicle>
    <vehicle id="15" depart="15.00" >
        <route edges="464114714#0 464114714#1 464114714#2 1031528884#2 1031528884#3 724053065 724053064#0 724053064#1 724053064#2 724053064#3 140035804#4 140035804#5 140035804#6 140035804#7 140035804#8 140035804#9 140035804#10 140035804#11 140035800#1 140035800#2 140035800#3 140035800#4 140035800#5 140035800#6 -588176271#0 1057662071#2 464114851#0"/>
    </vehicle>
    <vehicle id="16" depart="16.00" >
        <route edges="-412515704#3 -412515704#2 -412515703#2 -412515703#1 -412515703#0 140035804#10 140035804#11 140035800#1 464114846#1 464114846#2 464114726#0 1111813358 61670018#6 61670018#7 724053063 724053062#0 280097906#4 280097906#5"/>
    </vehicle>
    <vehicle id="17" depart="17.00" >
        <route edges="-280097906#5 -280097906#4 -280097906#3 1031528884#3 724053065 724053064#0 724053064#1 724053064#2 724053064#3 140035804#4 140035804#5 140035804#6 140035804#7 -248664925#3 -248664925#2 -248664925#1 248664925#1"/>
    </vehicle>
    <vehicle id="18" depart="18.00" >
        <route edges="-140035829#1 -248663899#2 -248663899#1 -588176271#1 -588176271#0 1057662071#2 464114851#0 464114846#2 464114726#0 1111813358 61670018#6 61670018#7 724053063 724053062#0 724053062#1 724053062#2 724053062#3 -464329596#2 464114716#0"/>
    </vehicle>
    <vehicle id="19" depart="19.00" >
        <route edges="140035804#9 412515703#0 412515703#1 412515703#2 -412515704#1 -412515706#2 -412515706#1 -412515706#0 774885815#2 -774885815#2"/>
    </vehicle>
    <vehicle id="20" depart="20.00" >
        <route edges="475294244 722850574 1057662071#0 1057662071#1 588176271#0 140035800#7 -140035829#1 -140035829#0 -471718183#1"/>
    </vehicle>
    <vehicle id="21" depart="21.00" >
        <route edges="538381240#4 286016045#0 412516734#1 412516734#2 464114714#1 464114714#2 1031528884#2 1031528884#3 724053065 724053064#0 724053064#1 724053064#2 724053064#3 140035804#4 140035804#5 140035804#6 140035804#7 140035804#8 140035804#9 140035804#10 140035804#11 140035800#1 140035800#2 140035800#3 140035800#4 140035800#5 140035800#6 588176271#1 248663899#1 -471718183#0"/>
    </vehicle>
    <vehicle id="22" depart="22.00" >
        <route edges="280097906#2 1031528884#3 724053065 724053064#0 724053064#1 724053064#2 724053064#3 140035804#4 140035804#5 140035804#6 140035804#7 -248664925#3 -248664925#2 -773911407 773911406#1"/>
    </vehicle>
    <vehicle id="23" depart="23.00" >
        <route edges="471718183#1 140035829#0 140035829#1 140035800#8 140035799 140035821"/>
    </vehicle>
    <vehicle id="25" depart="25.00" >
        <route edges="464114726#0 464114726#1 464114726#2 724053064#3 140035804#4 140035804#5 140035804#6 140035804#7 -248664925#3 -248664925#2 -248664925#1 -248664930#4 -248664930#3 -248664930#2 -248664930#1 -248664930#0 61670018#1 61670018#2 1111813359"/>
    </vehicle>
    <vehicle id="26" depart="26.00" >
        <route edges="248664930#4 248664925#1 248664925#2 248664925#3 140035804#8 140035804#9 140035804#10 140035804#11 140035800#1 140035800#2 140035800#3 -471718206"/>
    </vehicle>
    <vehicle id="27" depart="27.00" >
        <route edges="-280097906#4 -280097906#3 1031528884#3 724053065 724053064#0 724053064#1 724053064#2 724053064#3 140035804#4 140035804#5 140035804#6 140035804#7 140035804#8 140035804#9 140035804#10 464114851#2 464114851#3"/>
    </vehicle>
    <vehicle id="28" depart="28.00" >
        <route edges="280097906#2 1031528884#3 724053065 724053064#0 724053064#1 724053064#2 724053064#3 140035804#4 140035804#5 140035804#6 140035804#7 140035804#8 140035804#9 140035804#10 140035804#11 140035800#1 140035800#2 140035800#3 -471718206"/>
    </vehicle>
    <vehicle id="29" depart="29.00" >
        <route edges="464114716#2 -464114716#2 -464114716#1 -464114716#0 -464329596#1 -464329596#0"/>
    </vehicle>
    <vehicle id="30" depart="30.00" >
        <route edges="-464329596#1 464329596#1 464114716#0 140036130#2 140036130#3 1031528884#1 1031528884#2 1031528884#3 724053065 724053064#0 724053064#1 724053064#2 724053064#3 140035804#4 140035804#5 140035804#6 140035804#7 140035804#8 140035804#9 140035804#10 140035804#11 140035800#1 140035800#2 140035800#3 140035800#4 140035800#5 248663899#0"/>
    </vehicle>
    <vehicle id="31" depart="31.00" >
        <route edges="471718206 140035800#4 140035800#5 140035800#6 -588176271#0 1057662071#2 464114851#0 464114846#2 464114726#0 1111813358 61670018#6 61670018#7 724053063 724053062#0 724053062#1 464114714#4 464114714#5 -1023294358#1 140036130#1"/>
    </vehicle>
    <vehicle id="32" depart="32.00" >
        <route edges="1031528884#2 1031528884#3 724053065 724053064#0 724053064#1 724053064#2 724053064#3 140035804#4 140035804#5 140035804#6 140035804#7 140035804#8 140035804#9 140035804#10 140035804#11 140035800#1 140035800#2 140035800#3 140035800#4 140035800#5 140035800#6 140035800#7 -140035829#1 -140035829#0 -471718183#1"/>
    </vehicle>
    <vehicle id="33" depart="33.00" >
        <route edges="1023294358#0 140036130#1 140036130#2 140036130#3 1031528884#1 1031528884#2 1031528884#3 724053065 724053064#0 724053064#1 724053064#2 724053064#3 140035804#4 140035804#5 140035804#6 140035804#7 140035804#8 140035804#9 140035804#10 140035804#11 140035800#1 140035800#2 140035800#3 140035800#4 140035800#5 140035800#6 588176271#1 248663899#1 248663899#2"/>
    </vehicle>
    <vehicle id="34" depart="34.00" >
        <route edges="464114714#0 464114714#1 464114714#2 1031528884#2 1031528884#3 724053065 724053064#0 724053064#1 724053064#2 724053064#3 140035804#4 140035804#5 140035804#6 140035804#7 140035804#8 140035804#9 140035804#10 140035804#11 140035800#1 140035800#2 140035800#3 140035800#4 140035800#5 140035800#6 140035800#7 140035800#8 140035799 140035821"/>
    </vehicle>
    <vehicle id="36" depart="36.00" >
        <route edges="1057662071#0 1057662071#1 1057662071#2 464114851#0 464114846#2 464114726#0 464114726#1 464114726#2 724053064#3 140035804#4 140035804#5 140035804#6 140035804#7 -248664925#3 -248664925#2 -773911407 773911406#1"/>
    </vehicle>
    <vehicle id="38" depart="38.00" >
        <route edges="-464114716#2 -464114716#1 140036130#2 140036130#3 1031528884#1 1031528884#2 1031528884#3 724053065 724053064#0 724053064#1 724053064#2 724053064#3 140035804#4 140035804#5 140035804#6 140035804#7 -248664925#3 -248664925#2 -773911407 773911406#1"/>
    </vehicle>
    <vehicle id="39" depart="39.00" >
        <route edges="1031528884#0 1031528884#1 1031528884#2 1031528884#3 724053065 724053064#0 724053064#1 724053064#2 724053064#3 140035804#4 140035804#5 140035804#6 140035804#7 -248664925#3 -248664925#2 -248664925#1 -248664925#0"/>
    </vehicle>
    <vehicle id="40" depart="40.00" >
        <route edges="464329596#1 464114716#0 140036130#2 140036130#3 1031528884#1 1031528884#2 1031528884#3 724053065 724053064#0 724053064#1 724053064#2 724053064#3 140035804#4 140035804#5 140035804#6 140035804#7 140035804#8 -774885815#2 412515706#0 412515706#1 412515706#2 412515706#3"/>
    </vehicle>
    <vehicle id="42" depart="42.00" >
        <route edges="724053062#0 -280097906#3 1031528884#3 724053065 724053064#0 724053064#1 724053064#2 724053064#3 140035804#4 140035804#5 140035804#6 140035804#7 140035804#8 140035804#9 140035804#10 140035804#11 140035800#1 464114846#1 464114846#2"/>
    </vehicle>
    <vehicle id="43" depart="43.00" >
        <route edges="472492404#1 -472492404#1 -472492404#0 724053064#1 724053064#2 724053064#3 140035804#4 140035804#5 140035804#6 140035804#7 140035804#8 140035804#9 140035804#10"/>
    </vehicle>
    <vehicle id="44" depart="44.00" >
        <route edges="140035804#12 464114846#0 140035800#2 140035800#3 140035800#4 140035800#5 140035800#6 -588176271#0 1057662071#2 464114851#0"/>
    </vehicle>
    <vehicle id="45" depart="45.00" >
        <route edges="-248663899#2 -248663899#1 -588176271#1 -588176271#0 1057662071#2 464114851#0 464114846#2 464114726#0 1111813358 61670018#6 61670018#7 724053063 724053062#0 724053062#1 724053062#2 724053062#3 -464329596#2 -464329596#1 -464329596#0"/>
    </vehicle>
    <vehicle id="46" depart="46.00" >
        <route edges="475294244 722850574 1057662071#0 1057662071#1 1057662071#2 464114851#0 464114846#2 464114726#0 1111813358 61670018#6 61670018#7 724053063 724053062#0 -280097906#3 -280097906#2 286016042#0 286016042#1"/>
    </vehicle>
    <vehicle id="47" depart="47.00" >
        <route edges="464329596#2 -464329596#2 464114716#0 140036130#2 140036130#3 1031528884#1 1031528884#2 1031528884#3 724053065 724053064#0 724053064#1 724053064#2 724053064#3 140035804#4 140035804#5 140035804#6 140035804#7 140035804#8 140035804#9 140035804#10 140035804#11 140035804#12 464114846#0"/>
    </vehicle>
    <vehicle id="48" depart="48.00" >
        <route edges="464114846#2 464114726#0 1111813358 61670018#6 61670018#7 724053063 724053062#0 724053062#1 724053062#2 140036130#3 140036130#4 140036130#5 140036130#6"/>
    </vehicle>
    <vehicle id="50" depart="50.00" >
        <route edges="538381240#0 -472492404#1 -472492404#0 724053064#1 724053064#2 724053064#3 140035804#4 140035804#5 140035804#6 140035804#7 140035804#8 140035804#9 140035804#10 140035804#11 140035800#1 140035800#2 140035800#3 140035800#4"/>
    </vehicle>
    <vehicle id="51" depart="51.00" >
        <route edges="-280097906#4 -280097906#3 1031528884#3 724053065 724053064#0 724053064#1 724053064#2 724053064#3 140035804#4 140035804#5 140035804#6 140035804#7 140035804#8 774885815#3 464114726#0"/>
    </vehicle>
    <vehicle id="53" depart="53.00" >
        <route edges="724053063 724053062#0 724053062#1 724053062#2 140036130#3 140036130#4 538381240#4 286016045#0 286016045#1"/>
    </vehicle>
    <vehicle id="54" depart="54.00" >
        <route edges="-774885815#1 774885815#1 774885815#2 774885815#3 464114726#0 1111813358 61670018#6 61670018#7 724053063 724053062#0 724053062#1"/>
    </vehicle>
    <vehicle id="55" depart="55.00" >
        <route edges="-280097906#2 280097906#2 1031528884#3 724053065 724053064#0 724053064#1 724053064#2 724053064#3 140035804#4 140035804#5 140035804#6 140035804#7 140035804#8 140035804#9 140035804#10 140035804#11 140035800#1 140035800#2 140035800#3 140035800#4 140035800#5 140035800#6 140035800#7 -140035829#1 -140035829#0 140035829#0"/>
    </vehicle>
    <vehicle id="57" depart="57.00" >
        <route edges="464114714#2 464114714#3 464114714#4 464114714#5 -1023294358#1 140036130#1"/>
    </vehicle>
    <vehicle id="58" depart="58.00" >
        <route edges="464114714#0 464114714#1 464114714#2 1031528884#2 1031528884#3 724053065 724053064#0 724053064#1 724053064#2 724053064#3 140035804#4 140035804#5 140035804#6 140035804#7 140035804#8"/>
    </vehicle>
    <vehicle id="59" depart="59.00" >
        <route edges="-472555653 472555653 -472555652#1 -472555652#0 -286016042#0 -280097906#1 538381240#2"/>
    </vehicle>
    <vehicle id="60" depart="60.00" >
        <route edges="-248664930#4 -248664930#3 -248664930#2 -248664930#1 -248664930#0 61670018#1 61670018#2 61670018#3 61670018#4 464114726#2 464114726#3 464114726#4"/>
    </vehicle>
    <vehicle id="61" depart="61.00" >
        <route edges="1057662071#2 464114851#0 464114846#2 464114726#0 1111813358 61670018#6 61670018#7 724053063 724053062#0 724053062#1 724053062#2 140036130#3 140036130#4 140036130#5 412516734#2 464114714#1 464114714#2"/>
    </vehicle>
    <vehicle id="63" depart="63.00" >
        <route edges="475294244 722850574 1057662071#0 1057662071#1 588176271#0 140035800#7 140035800#8 140035799 140035821"/>
    </vehicle>
    <vehicle id="65" depart="65.00" >
        <route edges="248663899#0 -588176271#1 140035800#7 140035800#8 140035799 140035821"/>
    </vehicle>
    <vehicle id="66" depart="66.00" >
        <route edges="280097906#1 280097906#2 1031528884#3 724053065 724053064#0 724053064#1 724053064#2 724053064#3 140035804#4 140035804#5 140035804#6 140035804#7 140035804#8 140035804#9 140035804#10 140035804#11 140035800#1 140035800#2 140035800#3 140035800#4 140035800#5 140035800#6 588176271#1 248663899#1 -248663899#1"/>
    </vehicle>
    <vehicle id="67" depart="67.00" >
        <route edges="-412515706#3 412515704#1 412515704#2 467717176 -467717176"/>
    </vehicle>
    <vehicle id="68" depart="68.00" >
        <route edges="-471718183#1 -248663899#1 -588176271#1 -588176271#0 1057662071#2 464114851#0 464114851#1 464114851#2 -467717176 -412515704#2 -412515703#2 -412515703#1 412515703#1"/>
    </vehicle>
    <vehicle id="69" depart="69.00" >
        <route edges="464114714#0 464114714#1 538381240#3 140036130#5 140036130#6"/>
    </vehicle>
    <vehicle id="70" depart="70.00" >
        <route edges="475294244 722850574 1057662071#0 1057662071#1 588176271#0 140035800#7 140035800#8"/>
    </vehicle>
    <vehicle id="71" depart="71.00" >
        <route edges="140035800#4 140035800#5 140035800#6 -588176271#0 1057662071#2 464114851#0 464114851#1 464114851#2 464114851#3"/>
    </vehicle>
    <vehicle id="73" depart="73.00" >
        <route edges="-1111813346#3 -1111813346#2 -1111813346#1 -1111813346#0 724053064#6"/>
    </vehicle>
    <vehicle id="74" depart="74.00" >
        <route edges="412515704#1 -412515704#1 -412515706#2 -412515706#1 -412515706#0 -774885815#1 -248664930#6 -248664930#5 -248664930#4 -248664930#3 773911406#0"/>
    </vehicle>
    <vehicle id="75" depart="75.00"  >
        <route edges="464114846#2 464114726#0 1111813358 61670018#6 61670018#7 724053063 724053062#0 724053062#1 724053062#2 140036130#3 140036130#4 140036130#5 412516734#2 464114714#1 464114714#2"/>
    </vehicle>
    <vehicle id="76" depart="76.00" >
        <route edges="1031528884#0 1031528884#1 464114714#3 464114714#4 -464114716#1 -464114716#0"/>
    </vehicle>
    <vehicle id="77" depart="77.00" >
        <route edges="140035800#2 140035800#3 140035800#4 140035800#5 140035800#6 -588176271#0 1057662071#2 464114851#0 464114846#2 464114726#0 1111813358 61670018#6 61670018#7 724053063 724053062#0 -280097906#3 1031528884#3 724053065 724053064#0 472492404#0 472492404#1"/>
    </vehicle>
    <vehicle id="78" depart="78.00" >
        <route edges="140035810 140035800#5 140035800#6 -588176271#0 1057662071#2 464114851#0 464114846#2 464114726#0 464114726#1 464114726#2 724053064#3 140035804#4 140035804#5 140035804#6 140035804#7 140035804#8 -774885815#2 774885815#2"/>
    </vehicle>
    <vehicle id="79" depart="79.00" >
        <route edges="248664930#1 -248664930#1 -248664930#0 61670018#1 61670018#2 1111813359 140035804#6 140035804#7 140035804#8 140035804#9 140035804#10 140035804#11 140035800#1 464114846#1 464114846#2"/>
    </vehicle>
    <vehicle id="81" depart="81.00" >
        <route edges="140036130#1 140036130#2"/>
    </vehicle>
    <vehicle id="84" depart="84.00" >
        <route edges="412515704#0 -412515706#2 -412515706#1 -412515706#0 774885815#2 774885815#3 464114726#0 464114726#1 464114726#2 724053064#3 724053064#4 724053064#5 724053064#6"/>
    </vehicle>
    <vehicle id="85" depart="85.00" >
        <route edges="-814483940#1 -814483940#0 140035804#1 140035804#2 140035804#3 140035804#4 140035804#5 140035804#6 140035804#7 140035804#8 140035804#9 140035804#10 140035804#11 140035804#12"/>
    </vehicle>
    <vehicle id="86" depart="86.00" >
        <route edges="475294244 722850574 1057662071#0 1057662071#1 1057662071#2 464114851#0 464114851#1 140035804#11 140035800#1 140035800#2 140035800#3 -471718206"/>
    </vehicle>
    <vehicle id="87" depart="87.00" >
        <route edges="-472492404#1 472492404#1 538381240#1 538381240#2 538381240#3 140036130#5 412516734#2 412516734#3"/>
    </vehicle>
    <vehicle id="88" depart="88.00" >
        <route edges="1031528884#0 1031528884#1 464114714#3 724053062#2 724053062#3 -464329596#2 -464329596#1 -464329596#0"/>
    </vehicle>
    <vehicle id="89" depart="89.00" >
        <route edges="140035810 140035800#5 140035800#6 -588176271#0 1057662071#2 464114851#0 464114846#2 464114726#0 464114726#1 464114726#2 724053064#3 140035804#4 140035804#5 140035804#6 140035804#7 -248664925#3"/>
    </vehicle>
    <vehicle id="90" depart="90.00" >
        <route edges="1057662071#2 464114851#0 464114846#2 464114726#0 1111813358 61670018#6 61670018#7 724053063 724053062#0 724053062#1 724053062#2 724053062#3 724053062#4"/>
    </vehicle>
    <vehicle id="91" depart="91.00" >
        <route edges="140035804#0 140035804#1 140035804#2 140035804#3 140035804#4 140035804#5 140035804#6 140035804#7 -248664925#3 -248664925#2 -773911407 773911407"/>
    </vehicle>
    <vehicle id="92" depart="92.00" >
        <route edges="248664925#0 -248664930#4 -248664930#3 -248664930#2 -248664930#1 -248664930#0 61670018#1 61670018#2 61670018#3 61670018#4 61670018#5 61670018#6 61670018#7 724053063 724053062#0 -280097906#3 -280097906#2 -280097906#1 280097906#1"/>
    </vehicle>
    <vehicle id="93" depart="93.00" >
        <route edges="464114714#5 -1023294358#1 140036130#1 140036130#2 140036130#3 1031528884#1 1031528884#2 1031528884#3"/>
    </vehicle>
    <vehicle id="95" depart="95.00" >
        <route edges="412515704#0 -412515706#2 -412515706#1 -412515706#0 774885815#2 774885815#3 464114726#0 1111813358 61670018#6 61670018#7 724053063 724053062#0 724053062#1 464114714#4 -464114716#1 -464114716#0"/>
    </vehicle>
    <vehicle id="96" depart="96.00" >
        <route edges="464114846#0 464114846#1 464114851#1 464114851#2 -467717176 -412515704#2 -412515704#1 412515706#3"/>
    </vehicle>
    <vehicle id="97" depart="97.00" >
        <route edges="61670018#0 61670018#1 61670018#2 1111813359 140035804#6 140035804#7 140035804#8 140035804#9 140035804#10 140035804#11 140035800#1 140035800#2 140035800#3 140035800#4 140035800#5 140035800#6"/>
    </vehicle>
    <vehicle id="98" depart="98.00" >
        <route edges="-1111813346#3 1111813346#3 -814483940#0 140035804#1 140035804#2 140035804#3 140035804#4 140035804#5 140035804#6 140035804#7 140035804#8 140035804#9 140035804#10 140035804#11 140035804#12"/>
    </vehicle>
</routes>
