<additional>
    <tlLogic id="1534364746" programID="0" offset="197.11"/>
    <tlLogic id="4592680541" programID="0" offset="268.95"/>
    <tlLogic id="4592680542" programID="0" offset="228.96"/>
    <tlLogic id="6790592423" programID="0" offset="172.29"/>
    <tlLogic id="6790592425" programID="0" offset="147.28"/>
    <tlLogic id="6790592431" programID="0" offset="0.00"/>
    <tlLogic id="768678338" programID="0" offset="89.78"/>
</additional>
